Version 4
SHEET 1 1552 900
WIRE 224 112 -64 112
WIRE 304 112 224 112
WIRE 416 112 368 112
WIRE 512 112 416 112
WIRE 624 112 576 112
WIRE 688 112 624 112
WIRE 928 112 752 112
WIRE -64 144 -64 112
WIRE 928 160 928 112
WIRE 416 208 416 112
WIRE 624 208 624 112
WIRE -64 256 -64 224
WIRE 928 304 928 240
WIRE 416 336 416 288
WIRE 624 336 624 288
WIRE 224 560 224 112
WIRE 304 560 224 560
WIRE 448 560 384 560
WIRE 496 560 448 560
WIRE 640 560 576 560
WIRE 688 560 640 560
WIRE 928 560 768 560
WIRE 928 608 928 560
WIRE 448 656 448 560
WIRE 640 656 640 560
WIRE 928 752 928 688
WIRE 448 800 448 720
WIRE 640 800 640 720
FLAG -64 256 0
FLAG 928 304 0
FLAG 928 752 0
FLAG 416 336 0
FLAG 624 336 0
FLAG 448 800 0
FLAG 640 800 0
SYMBOL voltage -64 128 R0
WINDOW 123 24 152 Left 2
WINDOW 39 24 124 Left 2
SYMATTR Value2 AC 1
SYMATTR SpiceLine Rser=50
SYMATTR InstName V1
SYMATTR Value ""
SYMBOL res 912 144 R0
SYMATTR InstName R1
SYMATTR Value 50R
SYMBOL res 912 592 R0
SYMATTR InstName R2
SYMATTR Value 50R
SYMBOL cap 368 96 R90
WINDOW 0 0 32 VBottom 2
WINDOW 3 32 32 VTop 2
SYMATTR InstName C1
SYMATTR Value 3.3n
SYMBOL cap 576 96 R90
WINDOW 0 0 32 VBottom 2
WINDOW 3 32 32 VTop 2
SYMATTR InstName C2
SYMATTR Value 1.5n
SYMBOL cap 752 96 R90
WINDOW 0 0 32 VBottom 2
WINDOW 3 32 32 VTop 2
SYMATTR InstName C3
SYMATTR Value 3.3n
SYMBOL ind 608 192 R0
SYMATTR InstName L1
SYMATTR Value 5.76µ
SYMBOL ind 400 192 R0
SYMATTR InstName L2
SYMATTR Value 5.76µ
SYMBOL ind 288 576 R270
WINDOW 0 32 56 VTop 2
WINDOW 3 5 56 VBottom 2
SYMATTR InstName L3
SYMATTR Value 9.09µ
SYMBOL ind 480 576 R270
WINDOW 0 32 56 VTop 2
WINDOW 3 5 56 VBottom 2
SYMATTR InstName L4
SYMATTR Value 15.8µ
SYMBOL ind 672 576 R270
WINDOW 0 32 56 VTop 2
WINDOW 3 5 56 VBottom 2
SYMATTR InstName L5
SYMATTR Value 9.09µ
SYMBOL cap 432 656 R0
SYMATTR InstName C4
SYMATTR Value 4.7n
SYMBOL cap 624 656 R0
SYMATTR InstName C5
SYMATTR Value 4.7n
TEXT -456 168 Left 2 !.ac lin 10000 0.1Meg 50Meg
TEXT -456 136 Left 2 !.NET I(R2)V1
